data/GhanaGrid_V2.m
%%%%%%%%%%%%%%%%%%%%%%%%%%%%%%%%%%%%%%%%%%%%%%%%%%%%%%%%%%%%%%%%%%%%%%%%%%%
%%%%                                                                  %%%%%
%%%%                 Synthetic Electric Grid for Ghana                %%%%%
%%%%           (https://github.com/Haddoww/ORS-Ghana-Power)           %%%%%
%%%%                         15 - June - 2025                         %%%%%
%%%%                                                                  %%%%%
%%%%%%%%%%%%%%%%%%%%%%%%%%%%%%%%%%%%%%%%%%%%%%%%%%%%%%%%%%%%%%%%%%%%%%%%%%%
%
%   DC Optimal Power flow data for Ghanaian electricity transmission system.
%   Please see CASEFORMAT for details on the case file format.
%
%   This case accurately represents the size and complexity of Ghanaian
%   high voltage transmission network. These data can be used to validate 
%   mathematical methods and for future applied and policy research.
%   
%   When publishing results using this data, please cite:
%    R. Asiamah, K. Ji, T. Manoj, R. Williams and D. Molzahn,
%    "Developing a Synthetic Electric Grid in Africa: A Case Study in Ghana",
%    Power and Energy COnference at Illinois (PECI), 2025.
%
%   Contacts (primary contact for this file : Richard Asiamah):
%   asiamah@gatech.edu
%   Graduate Research Assistant,
%   Grid Optimization and Algorithms Lab,
%   Georgia Institute of Technology, Atlanta, GA 30332, USA.
%
%
%% MATPOWER Case Format : Version 2
function mpc = GhanaGrid
mpc.version = '2';

%%-----  Power Flow Data  -----%%
%% system MVA base
mpc.baseMVA = 100.0;
%% bus data
%    bus_i    type    Pd    Qd    Gs    Bs    area    Vm    Va    baseKV    zone    Vmax    Vmin
mpc.bus = [
	1	1	78.85149954	25.91723457	0.0	0.0	1	1.0	0.0	161.0	1	1.1	0.9				
	2	1	0.0	0.0	0.0	0.0	1	1.0	0.0	161.0	1	1.1	0.9				
	3	1	7.496575342	2.464005158	0.0	0.0	1	1.0	0.0	161.0	1	1.1	0.9				
	4	1	275.6964011	90.61702488	0.0	0.0	1	1.0	0.0	161.0	1	1.1	0.9				
	5	1	23.31741349	7.664063188	0.0	0.0	1	1.0	0.0	161.0	1	1.1	0.9				
	6	3	6.580097319	2.162773399	0.0	0.0	1	1.0	0.0	161.0	1	1.1	0.9				
	7	1	54.99864676	18.077181	0.0	0.0	1	1.0	0.0	161.0	1	1.1	0.9				
	8	1	7.902567859000001	2.597448445	0.0	0.0	1	1.0	0.0	161.0	1	1.1	0.9				
	9	1	62.68187804000001	20.602537	0.0	0.0	1	1.0	0.0	161.0	1	1.1	0.9				
	10	1	16.21800457	5.33060032	0.0	0.0	1	1.0	0.0	161.0	1	1.1	0.9				
	11	1	13.560161340000002	4.457009496	0.0	0.0	1	1.0	0.0	161.0	1	1.1	0.9				
	12	1	20.2628291	6.66006985	0.0	0.0	1	1.0	0.0	161.0	1	1.1	0.9				
	13	1	42.79321134	14.065448380000001	0.0	0.0	1	1.0	0.0	161.0	1	1.1	0.9				
	14	1	0.0	0.0	0.0	0.0	1	1.0	0.0	30.0	1	1.1	0.9				
	15	1	7.496575342	2.464005158	0.0	0.0	1	1.0	0.0	330.0	1	1.1	0.9				
	16	1	6.847816965000001	2.250768592	0.0	0.0	1	1.0	0.0	161.0	1	1.1	0.9				
	17	2	27.855745320000004	9.155740724	0.0	0.0	1	1.0	0.0	161.0	1	1.1	0.9				
	18	1	0.0	0.0	0.0	0.0	1	1.0	0.0	330.0	1	1.1	0.9				
	19	1	0.0	0.0	0.0	0.0	1	1.0	0.0	161.0	1	1.1	0.9				
	20	2	0.0	0.0	0.0	0.0	1	1.0	0.0	161.0	1	1.1	0.9				
	21	1	32.09410212	10.54882124	0.0	0.0	1	1.0	0.0	161.0	1	1.1	0.9				
	22	1	71.63919679	23.54666529	0.0	0.0	1	1.0	0.0	161.0	1	1.1	0.9				
	23	1	0.0	0.0	0.0	0.0	1	1.0	0.0	330.0	1	1.1	0.9				
	24	1	26.413929880000005	8.681838906	0.0	0.0	1	1.0	0.0	161.0	1	1.1	0.9				
	25	1	4.548008441	1.494858085	0.0	0.0	1	1.0	0.0	161.0	1	1.1	0.9				
	26	1	0.0	0.0	0.0	0.0	1	1.0	0.0	161.0	1	1.1	0.9				
	27	1	12.01512868	3.94918182	0.0	0.0	1	1.0	0.0	161.0	1	1.1	0.9				
	28	1	0.0	0.0	0.0	0.0	1	1.0	0.0	161.0	1	1.1	0.9				
	29	1	0.0	0.0	0.0	0.0	1	1.0	0.0	161.0	1	1.1	0.9				
	30	1	0.0	0.0	0.0	0.0	1	1.0	0.0	161.0	1	1.1	0.9				
	31	1	5.947891891	1.954977524	0.0	0.0	1	1.0	0.0	161.0	1	1.1	0.9				
	32	1	18.49523433	6.079089545	0.0	0.0	1	1.0	0.0	69.0	1	1.1	0.9				
	33	1	0.0	0.0	0.0	0.0	1	1.0	0.0	161.0	1	1.1	0.9				
	34	1	0.0	0.0	0.0	0.0	1	1.0	0.0	330.0	1	1.1	0.9				
	35	1	23.36257102	7.678905751000001	0.0	0.0	1	1.0	0.0	161.0	1	1.1	0.9				
	36	1	100.759353	33.11799777	0.0	0.0	1	1.0	0.0	161.0	1	1.1	0.9				
	37	2	0.0	0.0	0.0	0.0	1	1.0	0.0	161.0	1	1.1	0.9				
	38	1	32.8173516	10.78654184	0.0	0.0	1	1.0	0.0	330.0	1	1.1	0.9				
	39	1	23.7270568	7.798706434	0.0	0.0	1	1.0	0.0	161.0	1	1.1	0.9				
	40	1	13.34082476	4.384917049	0.0	0.0	1	1.0	0.0	161.0	1	1.1	0.9				
	41	1	27.4543379	9.023804486	0.0	0.0	1	1.0	0.0	225.0	1	1.1	0.9				
	42	1	35.38415078	11.63020794	0.0	0.0	1	1.0	0.0	161.0	1	1.1	0.9				
	43	1	66.41059986	21.82810859	0.0	0.0	1	1.0	0.0	69.0	1	1.1	0.9				
	44	1	10.43461511	3.429692131	0.0	0.0	1	1.0	0.0	69.0	1	1.1	0.9				
	45	2	20.56602966	6.759727056000001	0.0	0.0	1	1.0	0.0	161.0	1	1.1	0.9				
	46	1	15.789008029999998	5.189595975	0.0	0.0	1	1.0	0.0	161.0	1	1.1	0.9				
	47	1	352.5932246	115.89178850000002	0.0	0.0	1	1.0	0.0	161.0	1	1.1	0.9				
	48	1	32.8173516	10.78654184	0.0	0.0	1	1.0	0.0	161.0	1	1.1	0.9				
	49	2	99.96264511	32.85613256	0.0	0.0	1	1.0	0.0	161.0	1	1.1	0.9				
	50	1	24.00445306	7.889882176	0.0	0.0	1	1.0	0.0	161.0	1	1.1	0.9				
	51	1	0.0	0.0	0.0	0.0	1	1.0	0.0	225.0	1	1.1	0.9				
	52	1	12.521538129999998	4.115630557	0.0	0.0	1	1.0	0.0	161.0	1	1.1	0.9				
	53	1	22.93034894	7.536841224	0.0	0.0	1	1.0	0.0	161.0	1	1.1	0.9				
	54	1	34.90677117	11.47330085	0.0	0.0	1	1.0	0.0	161.0	1	1.1	0.9				
	55	1	17.71142862	5.821465067	0.0	0.0	1	1.0	0.0	161.0	1	1.1	0.9				
	56	1	2.206267925	0.725165199	0.0	0.0	1	1.0	0.0	161.0	1	1.1	0.9				
	57	2	0.0	0.0	0.0	0.0	1	1.0	0.0	161.0	1	1.1	0.9				
	58	1	43.35768047	14.25098041	0.0	0.0	1	1.0	0.0	161.0	1	1.1	0.9				
	59	1	38.83870187	12.765663969999999	0.0	0.0	1	1.0	0.0	161.0	1	1.1	0.9				
	60	1	27.4543379	9.023804486	0.0	0.0	1	1.0	0.0	225.0	1	1.1	0.9				
	61	1	0.0	0.0	0.0	0.0	1	1.0	0.0	330.0	1	1.1	0.9				
	62	1	21.94010881	7.211365031	0.0	0.0	1	1.0	0.0	161.0	1	1.1	0.9				
	63	1	7.496575342	2.464005158	0.0	0.0	1	1.0	0.0	225.0	1	1.1	0.9				
	64	1	0.0	0.0	0.0	0.0	1	1.0	0.0	161.0	1	1.1	0.9				
	65	1	10.11206132	3.3236738269999995	0.0	0.0	1	1.0	0.0	161.0	1	1.1	0.9				
	66	1	0.0	0.0	0.0	0.0	1	1.0	0.0	161.0	1	1.1	0.9				
	67	1	0.0	0.0	0.0	0.0	1	1.0	0.0	161.0	1	1.1	0.9				
	68	1	0.0	0.0	0.0	0.0	1	1.0	0.0	161.0	1	1.1	0.9				
	69	1	18.11462086	5.953987946	0.0	0.0	1	1.0	0.0	69.0	1	1.1	0.9				
	70	1	0.0	0.0	0.0	0.0	1	1.0	0.0	161.0	1	1.1	0.9				
	71	2	39.11932367	12.8578999	0.0	0.0	1	1.0	0.0	161.0	1	1.1	0.9				
	72	1	61.317475509999994	20.15407957	0.0	0.0	1	1.0	0.0	161.0	1	1.1	0.9				
	73	2	216.17232459999997	71.05240708	0.0	0.0	1	1.0	0.0	161.0	1	1.1	0.9				
	74	1	19.79190056	6.505283127	0.0	0.0	1	1.0	0.0	161.0	1	1.1	0.9				
	75	1	19.23065697	6.320811277999999	0.0	0.0	1	1.0	0.0	161.0	1	1.1	0.9				
	76	1	82.43184661	27.094037739999997	0.0	0.0	1	1.0	0.0	161.0	1	1.1	0.9				
	77	1	10.79264982	3.5473724479999995	0.0	0.0	1	1.0	0.0	161.0	1	1.1	0.9				
	78	2	14.86972973	4.887443809	0.0	0.0	1	1.0	0.0	161.0	1	1.1	0.9				
	79	2	52.11179034	17.12831718	0.0	0.0	1	1.0	0.0	161.0	1	1.1	0.9				
	80	2	75.00020729	24.65137602	0.0	0.0	1	1.0	0.0	161.0	1	1.1	0.9				
	81	1	26.507470480000002	8.712584214	0.0	0.0	1	1.0	0.0	161.0	1	1.1	0.9				
	82	1	27.4543379	9.023804486	0.0	0.0	1	1.0	0.0	35.0	1	1.1	0.9				
	83	1	27.4543379	9.023804486	0.0	0.0	1	1.0	0.0	225.0	1	1.1	0.9				
	84	1	15.44710101	5.077216573	0.0	0.0	1	1.0	0.0	161.0	1	1.1	0.9				
	85	1	0.0	0.0	0.0	0.0	1	1.0	0.0	69.0	1	1.1	0.9				
	86	1	0.0	0.0	0.0	0.0	1	1.0	0.0	330.0	1	1.1	0.9				
	87	1	0.0	0.0	0.0	0.0	1	1.0	0.0	330.0	1	1.1	0.9				
	88	1	0.0	0.0	0.0	0.0	1	1.0	0.0	330.0	1	1.1	0.9				
	89	1	0.0	0.0	0.0	0.0	1	1.0	0.0	330.0	1	1.1	0.9				
	90	1	0.0	0.0	0.0	0.0	1	1.0	0.0	330.0	1	1.1	0.9				
	91	1	0.0	0.0	0.0	0.0	1	1.0	0.0	330.0	1	1.1	0.9				
	92	1	0.0	0.0	0.0	0.0	1	1.0	0.0	330.0	1	1.1	0.9				
	93	1	0.0	0.0	0.0	0.0	1	1.0	0.0	330.0	1	1.1	0.9				
	94	1	0.0	0.0	0.0	0.0	1	1.0	0.0	330.0	1	1.1	0.9				
	95	1	0.0	0.0	0.0	0.0	1	1.0	0.0	225.0	1	1.1	0.9				
	96	1	0.0	0.0	0.0	0.0	1	1.0	0.0	225.0	1	1.1	0.9				
	97	1	0.0	0.0	0.0	0.0	1	1.0	0.0	225.0	1	1.1	0.9				
	98	1	0.0	0.0	0.0	0.0	1	1.0	0.0	30.0	1	1.1	0.9				
	99	1	0.0	0.0	0.0	0.0	1	1.0	0.0	35.0	1	1.1	0.9				
];

%% generator data
%    bus    Pg    Qg    Qmax    Qmin    Vg    mBase    status    Pmax    Pmin    Pc1    Pc2    Qc1min    Qc1max    Qc2min    Qc2max    ramp_agc    ramp_10    ramp_30    ramp_q    apf
mpc.gen = [
	6	484.56384	0.0	391.68	-49.98	1.0	100.0	1	1023.1500000000001	204.63															
	20	188.9664	0.0	152.7372	-19.49115	1.0	100.0	1	399.0	79.8															
	45	86.95296	0.0	70.28208	-8.96886	1.0	100.0	1	183.6	36.72															
	73	172.53248	0.0	139.45404	-17.796055	1.0	100.0	1	364.3	72.86															
	73	172.1536	0.0	139.1478	-17.756975	1.0	100.0	1	363.5	72.7															
	73	73.408	0.0	59.333999999999996	-7.57175	1.0	100.0	1	155.0	31.0															
	73	85.248	0.0	68.904	-8.793	1.0	100.0	1	180.0	36.0															
	73	189.44	0.0	153.12	-19.54	1.0	100.0	1	400.0	80.0															
	6	172.1536	0.0	139.1478	-17.756975	1.0	100.0	1	363.5	72.7															
	49	82.4064	0.0	66.6072	-8.4999	1.0	100.0	1	174.0	34.8															
	49	170.496	0.0	137.808	-17.586	1.0	100.0	1	360.0	72.0															
	57	161.11872	0.0	130.22856	-16.61877	1.0	100.0	1	340.2	68.04															
	57	38.97728	0.0	31.50444	-4.020355	1.0	100.0	1	82.3	16.46															
	57	23.49056	0.0	18.98688	-2.42296	1.0	100.0	1	49.6	9.92															
	37	222.59200000000004	0.0	179.916	-22.9595	1.0	100.0	1	470.0	94.0															
	49	175.232	0.0	141.636	-18.0745	1.0	100.0	1	370.0	74.0															
	73	94.72	0.0	76.56	-9.77	1.0	100.0	1	200.0	40.0															
	71	23.68	0.0	19.14	-25.0	1.0	100.0	1	50.0	0.0															
	79	6.1568	0.0	6.5	-6.5	1.0	100.0	1	13.0	0.0															
	17	1.184	0.0	1.25	-1.25	1.0	100.0	1	2.5	0.0															
	79	3.0784	0.0	3.25	-3.25	1.0	100.0	1	6.5	0.0															
	80	9.472	0.0	10.0	-10.0	1.0	100.0	1	20.0	0.0															
	80	9.472	0.0	10.0	-10.0	1.0	100.0	1	20.0	0.0															
	78	0.04736	0.0	0.05	-0.05	1.0	100.0	1	0.1	0.0															
];

%% branch data
%    f_bus    t_bus    r    x    b    rateA    rateB    rateC    ratio    angle    status    angmin    angmax
mpc.branch = [
	%%30-35 kV lines
	98	14	0.017311234	0.023616797	6.69015e-6	58.19691	58.19691	58.19691	0	0	1	-59.99999999999999	59.99999999999999								
	82	99	0.009255198	0.030328166	4.08315e-5	58.19691	58.19691	58.19691	0	0	1	-59.99999999999999	59.99999999999999								
	%%69 kV lines
	85	32	0.020592415	0.030133868	0.000144342	143.01067395	93.219	93.219	0	0	1	-59.99999999999999	59.99999999999999								
	85	69	0.017263778	0.025262914	0.000172173	93.219	93.219	93.219	0	0	1	-59.99999999999999	59.99999999999999								
	32	44	0.011791273	0.017254736	0.000252081	115.267822455	93.219	93.219	0	0	1	-59.99999999999999	59.99999999999999								
	43	44	0.020141075	0.0294734	0.000147577	99.61589979	93.219	93.219	0	0	1	-59.99999999999999	59.99999999999999								
	%%161 kV lines
	1	4	0.00590255	0.019341943	6.40238e-5	213.0000001879016	213.0	213.0	0	0	1	-59.99999999999999	59.99999999999999								
	1	4	0.00585533	0.019187207	6.45401e-5	213.00000018944775	213.0	213.0	0	0	1	-59.99999999999999	59.99999999999999								
	1	4	0.00585533	0.019187207	6.45401e-5	213.00000018944775	213.0	213.0	0	0	1	-59.99999999999999	59.99999999999999								
	1	78	0.006233093	0.020425092	6.06286e-5	213.00000017544153	213.0	213.0	0	0	1	-59.99999999999999	59.99999999999999								
	1	78	0.006233093	0.020425092	6.06286e-5	213.00000017544153	213.0	213.0	0	0	1	-59.99999999999999	59.99999999999999								
	1	78	0.006233093	0.020425092	6.06286e-5	213.00000017544153	213.0	213.0	0	0	1	-59.99999999999999	59.99999999999999								
	1	78	0.006233093	0.020425092	6.06286e-5	213.00000017544153	213.0	213.0	0	0	1	-59.99999999999999	59.99999999999999								
	2	22	0.028001697	0.091758177	1.34957e-5	213.00000015513706	213.0	213.0	0	0	1	-59.99999999999999	59.99999999999999								
	2	22	0.028001697	0.091758177	1.34957e-5	213.00000015513706	213.0	213.0	0	0	1	-59.99999999999999	59.99999999999999								
	2	73	0.006185872	0.020270356	6.10914e-5	213.00000011532393	213.0	213.0	0	0	1	-59.99999999999999	59.99999999999999								
	2	73	0.006185872	0.020270356	6.10914e-5	213.00000011532393	213.0	213.0	0	0	1	-59.99999999999999	59.99999999999999								
	2	75	0.026726747	0.087580317	1.41395e-5	288.69481591224303	213.0	213.0	0	0	1	-59.99999999999999	59.99999999999999								
	2	80	0.062897573	0.206107743	6.00824e-6	213.00000013608314	213.0	213.0	0	0	1	-59.99999999999999	59.99999999999999								
	4	45	0.037398557	0.12255055	1.01048e-5	213.00000012365717	213.0	213.0	0	0	1	-59.99999999999999	59.99999999999999								
	4	49	0.005005362	0.016401968	7.54998e-5	213.00226904994634	213.0	213.0	0	0	1	-59.99999999999999	59.99999999999999								
	4	49	0.005005362	0.016401968	7.54998e-5	213.00226904994634	213.0	213.0	0	0	1	-59.99999999999999	59.99999999999999								
	4	80	0.027293391	0.089437144	1.3846e-5	213.0000001052058	213.0	213.0	0	0	1	-59.99999999999999	59.99999999999999								
	5	10	0.03295984	0.108005409	1.14656e-5	213.0	213.0	213.0	0	0	1	-59.99999999999999	59.99999999999999								
	5	10	0.03295984	0.108005409	1.14656e-5	213.0	213.0	213.0	0	0	1	-59.99999999999999	59.99999999999999								
	5	48	0.001322171	0.004332595	0.000285821	213.0	213.0	213.0	0	0	1	-59.99999999999999	59.99999999999999								
	5	48	0.001322171	0.004332595	0.000285821	213.0	213.0	213.0	0	0	1	-59.99999999999999	59.99999999999999								
	6	10	0.026018441	0.085259284	1.45245e-5	213.0	213.0	213.0	0	0	1	-59.99999999999999	59.99999999999999								
	6	10	0.026018441	0.085259284	1.45245e-5	213.0	213.0	213.0	0	0	1	-59.99999999999999	59.99999999999999								
	6	46	0.011616219	0.038064943	3.25324e-5	213.00000009803216	213.0	213.0	0	0	1	-59.99999999999999	59.99999999999999								
	6	45	0.006752517	0.022127183	5.59649e-5	213.00000010813892	213.0	213.0	0	0	1	-59.99999999999999	59.99999999999999								
	6	45	0.006752517	0.022127183	5.59649e-5	213.00000010813892	213.0	213.0	0	0	1	-59.99999999999999	59.99999999999999								
	6	45	0.006752517	0.022127183	5.59649e-5	213.00000010813892	213.0	213.0	0	0	1	-59.99999999999999	59.99999999999999								
	6	45	0.006752517	0.022127183	5.59649e-5	213.00000010813892	213.0	213.0	0	0	1	-59.99999999999999	59.99999999999999								
	6	47	0.104876509	0.34366764	3.60332e-6	352.6268795421378	213.0	213.0	0	0	1	-59.99999999999999	59.99999999999999								
	6	72	0.028190579	0.092377119	1.34053e-5	421.0561735576907	213.0	213.0	0	0	1	-59.99999999999999	59.99999999999999								
	6	72	0.028190579	0.092377119	1.34053e-5	421.0561735572701	213.0	213.0	0	0	1	-59.99999999999999	59.99999999999999								
	6	78	0.032015432	0.104910698	1.18038e-5	213.00000010016947	213.0	213.0	0	0	1	-59.99999999999999	59.99999999999999								
	6	78	0.032015432	0.104910698	1.18038e-5	213.00000010016947	213.0	213.0	0	0	1	-59.99999999999999	59.99999999999999								
	6	78	0.032015432	0.104910698	1.18038e-5	213.00000010016947	213.0	213.0	0	0	1	-59.99999999999999	59.99999999999999								
	6	78	0.032015432	0.104910698	1.18038e-5	213.00000010016947	213.0	213.0	0	0	1	-59.99999999999999	59.99999999999999								
	7	54	0.046795417	0.153342923	8.07566e-6	238.54261981654236	213.0	213.0	0	0	1	-59.99999999999999	59.99999999999999								
	7	72	0.026679526	0.087425582	1.41646e-5	321.040589643133	213.0	213.0	0	0	1	-59.99999999999999	59.99999999999999								
	8	16	0.023704641	0.077677242	1.59422e-5	213.0	213.0	213.0	0	0	1	-59.99999999999999	59.99999999999999								
	9	11	0.024554608	0.080462482	1.53903e-5	213.00000012396413	213.0	213.0	0	0	1	-59.99999999999999	59.99999999999999								
	9	29	0.022618572	0.074118325	1.67077e-5	213.00000013096724	213.0	213.0	0	0	1	-59.99999999999999	59.99999999999999								
	9	35	0.032345974	0.105993847	1.16832e-5	213.00000013487806	213.0	213.0	0	0	1	-59.99999999999999	59.99999999999999								
	11	24	0.008405231	0.027542927	4.49605e-5	213.00000012478267	213.0	213.0	0	0	1	-59.99999999999999	59.99999999999999								
	11	29	0.001936036	0.006344157	0.000195195	213.00000009786163	213.0	213.0	0	0	1	-59.99999999999999	59.99999999999999								
	11	29	0.001936036	0.006344157	0.000195195	213.00000009786163	213.0	213.0	0	0	1	-59.99999999999999	59.99999999999999								
	12	66	0.012796729	0.041933332	2.95313e-5	213.0	213.0	213.0	0	0	1	-59.99999999999999	59.99999999999999								
	12	84	0.013505035	0.044254365	2.79824e-5	213.0	213.0	213.0	0	0	1	-59.99999999999999	59.99999999999999								
	13	71	0.016668801	0.054621647	2.26713e-5	213.0	213.0	213.0	0	0	1	-59.99999999999999	59.99999999999999								
	16	24	0.030834921	0.101042309	1.22557e-5	353.20202208130286	213.0	213.0	0	0	1	-59.99999999999999	59.99999999999999								
	16	62	0.006374754	0.020889298	5.92813e-5	375.32759930567227	213.0	213.0	0	0	1	-59.99999999999999	59.99999999999999								
	17	52	0.013127271	0.043016481	2.87877e-5	213.0000001016474	213.0	213.0	0	0	1	-59.99999999999999	59.99999999999999								
	17	74	0.075174878	0.246338984	5.027e-6	213.00000012101964	213.0	213.0	0	0	1	-59.99999999999999	59.99999999999999								
	17	84	0.024460167	0.080153011	1.54498e-5	213.0	213.0	213.0	0	0	1	-59.99999999999999	59.99999999999999								
	19	26	0.022949115	0.075201474	1.6467e-5	213.0000000974751	213.0	213.0	0	0	1	-59.99999999999999	59.99999999999999								
	19	26	0.022949115	0.075201474	1.6467e-5	213.0000000974751	213.0	213.0	0	0	1	-59.99999999999999	59.99999999999999								
	19	27	0.010388488	0.034041819	3.63772e-5	213.0000001292392	213.0	213.0	0	0	1	-59.99999999999999	59.99999999999999								
	19	31	0.018982601	0.062203688	1.99079e-5	213.00000012391865	213.0	213.0	0	0	1	-59.99999999999999	59.99999999999999								
	20	40	0.03177933	0.10413702	1.18915e-5	213.00000035563517	213.0	213.0	0	0	1	-59.99999999999999	59.99999999999999								
	20	65	0.066722426	0.218641322	5.66382e-6	213.00000027425813	213.0	213.0	0	0	1	-59.99999999999999	59.99999999999999								
	20	71	0.065400255	0.214308727	5.77832e-6	213.00000009755468	213.0	213.0	0	0	1	-59.99999999999999	59.99999999999999								
	20	76	0.050573049	0.165721766	7.47243e-6	213.00000010203394	213.0	213.0	0	0	1	-59.99999999999999	59.99999999999999								
	21	40	0.039759577	0.130287327	9.50472e-6	243.91455613439393	213.0	213.0	0	0	1	-59.99999999999999	59.99999999999999								
	21	64	0.041695614	0.136631484	9.06339e-6	213.00000012373675	213.0	213.0	0	0	1	-59.99999999999999	59.99999999999999								
	21	74	0.048212029	0.157984989	7.83837e-6	213.00000012337296	213.0	213.0	0	0	1	-59.99999999999999	59.99999999999999								
	22	49	0.057183905	0.187384742	6.60857e-6	213.0000001783519	213.0	213.0	0	0	1	-59.99999999999999	59.99999999999999								
	22	80	0.034895876	0.114349566	1.08295e-5	213.00000011898464	213.0	213.0	0	0	1	-59.99999999999999	59.99999999999999								
	22	80	0.034895876	0.114349566	1.08295e-5	213.00000011898464	213.0	213.0	0	0	1	-59.99999999999999	59.99999999999999								
	24	29	0.006469195	0.021198769	5.84159e-5	213.00000015088517	213.0	213.0	0	0	1	-59.99999999999999	59.99999999999999								
	24	54	0.014685545	0.048122754	2.5733e-5	213.00000011705197	213.0	213.0	0	0	1	-59.99999999999999	59.99999999999999								
	26	27	0.033337603	0.109243293	1.13357e-5	213.00000010024905	213.0	213.0	0	0	1	-59.99999999999999	59.99999999999999								
	26	31	0.041931716	0.137405162	9.01236e-6	213.00000010156782	213.0	213.0	0	0	1	-59.99999999999999	59.99999999999999								
	28	68	0.001699934	0.00557048	0.000222305	213.0	213.0	213.0	0	0	1	-59.99999999999999	59.99999999999999								
	28	68	0.001699934	0.00557048	0.000222305	213.0	213.0	213.0	0	0	1	-59.99999999999999	59.99999999999999								
	30	39	0.04948698	0.162162849	7.63643e-6	213.00000010140866	213.0	213.0	0	0	1	-59.99999999999999	59.99999999999999								
	30	39	0.04948698	0.162162849	7.63643e-6	213.00000010140866	213.0	213.0	0	0	1	-59.99999999999999	59.99999999999999								
	30	47	0.004910922	0.016092496	7.69517e-5	213.0000002224624	213.0	213.0	0	0	1	-59.99999999999999	59.99999999999999								
	30	47	0.004910922	0.016092496	7.69517e-5	213.0000002224624	213.0	213.0	0	0	1	-59.99999999999999	59.99999999999999								
	30	54	0.023893523	0.078296185	1.58162e-5	213.00000053596523	213.0	213.0	0	0	1	-59.99999999999999	59.99999999999999								
	30	59	0.020871417	0.06839311	1.81063e-5	213.00029621737667	213.0	213.0	0	0	1	-59.99999999999999	59.99999999999999								
	31	73	0.033148721	0.108624351	1.14003e-5	213.00000019340405	213.0	213.0	0	0	1	-59.99999999999999	59.99999999999999								
	33	68	0.001794375	0.005879951	0.000210605	213.0	213.0	213.0	0	0	1	-59.99999999999999	59.99999999999999								
	35	50	0.038531847	0.126264203	9.80757e-6	213.0000001121407	213.0	213.0	0	0	1	-59.99999999999999	59.99999999999999								
	36	42	0.017093785	0.056014266	2.21077e-5	276.587273999201	213.0	213.0	0	0	1	-59.99999999999999	59.99999999999999								
	36	47	0.008641333	0.028316604	4.37321e-5	213.00000009740688	213.0	213.0	0	0	1	-59.99999999999999	59.99999999999999								
	37	68	0.002786004	0.009129397	0.000135644	213.0000001191438	213.0	213.0	0	0	1	-59.99999999999999	59.99999999999999								
	37	68	0.002786004	0.009129397	0.000135644	213.0000001193257	213.0	213.0	0	0	1	-59.99999999999999	59.99999999999999								
	39	47	0.054397901	0.178255345	6.94703e-6	213.00000009873702	213.0	213.0	0	0	1	-59.99999999999999	59.99999999999999								
	39	59	0.070358397	0.230555958	5.37113e-6	213.00000011975771	213.0	213.0	0	0	1	-59.99999999999999	59.99999999999999								
	39	71	0.018321515	0.060037391	2.06262e-5	213.00000023642315	213.0	213.0	0	0	1	-59.99999999999999	59.99999999999999								
	40	76	0.029182207	0.095626565	1.29498e-5	213.00000014260877	213.0	213.0	0	0	1	-59.99999999999999	59.99999999999999								
	42	58	0.024507388	0.080307747	1.542e-5	329.6635001127361	213.0	213.0	0	0	1	-59.99999999999999	59.99999999999999								
	45	78	0.025262914	0.082783515	1.49588e-5	213.00000009897576	213.0	213.0	0	0	1	-59.99999999999999	59.99999999999999								
	45	78	0.025262914	0.082783515	1.49588e-5	213.00000009897576	213.0	213.0	0	0	1	-59.99999999999999	59.99999999999999								
	45	78	0.025262914	0.082783515	1.49588e-5	213.00000009897576	213.0	213.0	0	0	1	-59.99999999999999	59.99999999999999								
	45	78	0.025262914	0.082783515	1.49588e-5	213.00000009897576	213.0	213.0	0	0	1	-59.99999999999999	59.99999999999999								
	46	78	0.025215694	0.08262878	1.49868e-5	213.00000010065833	213.0	213.0	0	0	1	-59.99999999999999	59.99999999999999								
	47	76	0.055814513	0.182897411	6.77071e-6	213.0000001379476	213.0	213.0	0	0	1	-59.99999999999999	59.99999999999999								
	49	80	0.022288029	0.073035176	1.69555e-5	213.00000035367975	213.0	213.0	0	0	1	-59.99999999999999	59.99999999999999								
	49	80	0.022288029	0.073035176	1.69555e-5	213.00000035367975	213.0	213.0	0	0	1	-59.99999999999999	59.99999999999999								
	50	71	0.026160102	0.085723491	1.44458e-5	213.00000010122676	213.0	213.0	0	0	1	-59.99999999999999	59.99999999999999								
	52	77	0.047739825	0.156437634	7.9159e-6	213.00000010643362	213.0	213.0	0	0	1	-59.99999999999999	59.99999999999999								
	53	58	0.020351993	0.066691019	1.85684e-5	213.0	213.0	213.0	0	0	1	-59.99999999999999	59.99999999999999								
	54	59	0.002644342	0.00866519	0.00014291	213.00000011386874	213.0	213.0	0	0	1	-59.99999999999999	59.99999999999999								
	55	64	0.004202616	0.013771463	8.99211e-5	213.00000012373675	213.0	213.0	0	0	1	-59.99999999999999	59.99999999999999								
	55	74	0.005760889	0.018877736	6.55982e-5	213.00000009995347	213.0	213.0	0	0	1	-59.99999999999999	59.99999999999999								
	55	74	0.005760889	0.018877736	6.55982e-5	213.00000009995347	213.0	213.0	0	0	1	-59.99999999999999	59.99999999999999								
	56	62	0.013268933	0.043480687	2.84803e-5	245.25716390320486	213.0	213.0	0	0	1	-59.99999999999999	59.99999999999999								
	56	75	0.004060954	0.013307257	9.30579e-5	248.56656575278794	213.0	213.0	0	0	1	-59.99999999999999	59.99999999999999								
	57	78	0.001086069	0.003558917	0.000347955	213.00000012369128	213.0	213.0	0	0	1	-59.99999999999999	59.99999999999999								
	57	78	0.001086069	0.003558917	0.000347955	213.00000012369128	213.0	213.0	0	0	1	-59.99999999999999	59.99999999999999								
	58	72	0.028757224	0.094233945	1.31412e-5	429.0955441807346	213.0	213.0	0	0	1	-59.99999999999999	59.99999999999999								
	59	62	0.052839628	0.173149072	7.1519e-6	279.60614552254174	213.0	213.0	0	0	1	-59.99999999999999	59.99999999999999								
	62	75	0.012466186	0.040850183	3.03143e-5	342.02268021380223	213.0	213.0	0	0	1	-59.99999999999999	59.99999999999999								
	65	79	0.044103854	0.144522997	8.5685e-6	213.0000002097977	213.0	213.0	0	0	1	-59.99999999999999	59.99999999999999								
	67	68	0.000424984	0.00139262	0.00088922	213.0	213.0	213.0	0	0	1	-59.99999999999999	59.99999999999999								
	67	68	0.000424984	0.00139262	0.00088922	213.0	213.0	213.0	0	0	1	-59.99999999999999	59.99999999999999								
	67	68	0.000472204	0.001547355	0.000800298	213.0	213.0	213.0	0	0	1	-59.99999999999999	59.99999999999999								
	67	68	0.000236102	0.000773678	0.001600595	213.0	213.0	213.0	0	0	1	-59.99999999999999	59.99999999999999								
	67	68	0.000519424	0.001702091	0.000727543	213.0	213.0	213.0	0	0	1	-59.99999999999999	59.99999999999999								
	67	68	0.000236102	0.000773678	0.001600595	213.0	213.0	213.0	0	0	1	-59.99999999999999	59.99999999999999								
	68	78	0.00118051	0.003868389	0.000320119	213.00000010695658	213.0	213.0	0	0	1	-59.99999999999999	59.99999999999999								
	68	78	0.00118051	0.003868389	0.000320119	213.00000010695658	213.0	213.0	0	0	1	-59.99999999999999	59.99999999999999								
	68	78	0.00118051	0.003868389	0.000320119	213.00000010695658	213.0	213.0	0	0	1	-59.99999999999999	59.99999999999999								
	68	78	0.00118051	0.003868389	0.000320119	213.00000010695658	213.0	213.0	0	0	1	-59.99999999999999	59.99999999999999								
	68	78	0.00113329	0.003713653	0.000333457	213.00000010841177	213.0	213.0	0	0	1	-59.99999999999999	59.99999999999999								
	68	78	0.00113329	0.003713653	0.000333457	213.00000010841177	213.0	213.0	0	0	1	-59.99999999999999	59.99999999999999								
	70	78	0.003069326	0.01005781	0.000123123	213.00000009813448	213.0	213.0	0	0	1	-59.99999999999999	59.99999999999999								
	71	76	0.02597122	0.085104548	1.45509e-5	213.00000011502834	213.0	213.0	0	0	1	-59.99999999999999	59.99999999999999								
	73	75	0.023846302	0.078141449	1.58475e-5	330.7404153701218	213.0	213.0	0	0	1	-59.99999999999999	59.99999999999999								
	74	81	0.04717318	0.154580807	8.01099e-6	213.00000010152235	213.0	213.0	0	0	1	-59.99999999999999	59.99999999999999								
	77	79	0.070075074	0.229627545	5.39284e-6	213.00000011251586	213.0	213.0	0	0	1	-59.99999999999999	59.99999999999999								
	%%225 kV lines
	95	41	0.121501157	0.603687821	1.91058e-6	740.0	740.0	740.0	0	0	1	-59.99999999999999	59.99999999999999								
	95	60	0.052000366	0.25836781	4.46414e-6	740.0	740.0	740.0	0	0	1	-59.99999999999999	59.99999999999999								
	95	60	0.052000366	0.25836781	4.46414e-6	740.0	740.0	740.0	0	0	1	-59.99999999999999	59.99999999999999								
	95	83	0.058856526	0.292433162	3.94412e-6	740.0	740.0	740.0	0	0	1	-59.99999999999999	59.99999999999999								
	96	51	0.009235465	0.045887119	2.51354e-5	740.0	740.0	740.0	0	0	1	-59.99999999999999	59.99999999999999								
	96	97	0.02213381	0.109973535	1.04879e-5	740.0000000286491	740.0	740.0	0	0	1	-59.99999999999999	59.99999999999999								
	96	63	0.045175514	0.224458007	5.13856e-6	740.0	740.0	740.0	0	0	1	-59.99999999999999	59.99999999999999								
	3	96	0.000313067	0.001555496	0.000741494	740.0	740.0	740.0	0	0	1	-59.99999999999999	59.99999999999999								
	%%330 kV lines
	86	61	0.013220786	0.07019632	1.65072e-5	875.0	875.0	875.0	0	0	1	-59.99999999999999	59.99999999999999								
	86	61	0.013220786	0.07019632	1.65072e-5	875.0999999999999	875.0999999999999	875.0999999999999	0	0	1	-59.99999999999999	59.99999999999999								
	86	93	0.06640716	0.352591605	3.28637e-6	875.2000000240334	875.2	875.2	0	0	1	-59.99999999999999	59.99999999999999								
	15	87	0.074200147	0.393968794	2.94122e-6	875.3	875.3	875.3	0	0	1	-59.99999999999999	59.99999999999999								
	18	90	0.051276031	0.272252239	4.25616e-6	875.4	875.4	875.4	0	0	1	-59.99999999999999	59.99999999999999								
	23	34	0.042876587	0.227655036	5.08993e-6	875.5000000000001	875.5000000000001	875.5000000000001	0	0	1	-59.99999999999999	59.99999999999999								
	87	61	0.021529262	0.11431052	1.01368e-5	875.6	875.6	875.6	0	0	1	-59.99999999999999	59.99999999999999								
	87	61	0.021529262	0.11431052	1.01368e-5	875.6999999999999	875.6999999999999	875.6999999999999	0	0	1	-59.99999999999999	59.99999999999999								
	34	91	0.005336831	0.028336129	4.08929e-5	875.8	875.8	875.8	0	0	1	-59.99999999999999	59.99999999999999								
	34	91	0.005336831	0.028336129	4.08929e-5	875.9000000000001	875.9000000000001	875.9000000000001	0	0	1	-59.99999999999999	59.99999999999999								
	88	89	0.047788897	0.253737155	4.56673e-6	875.1000000244085	875.0999999999999	875.0999999999999	0	0	1	-59.99999999999999	59.99999999999999								
	38	94	0.041269473	0.219121998	5.28814e-6	875.1100000000001	875.1100000000001	875.1100000000001	0	0	1	-59.99999999999999	59.99999999999999								
	89	90	0.054065738	0.287064307	4.03654e-6	875.1200000247384	875.1200000000001	875.1200000000001	0	0	1	-59.99999999999999	59.99999999999999								
	91	93	0.00260777	0.013846063	8.36879e-5	875.1300000237379	875.1300000000001	875.1300000000001	0	0	1	-59.99999999999999	59.99999999999999								
	91	93	0.00260777	0.013846063	8.36879e-5	875.1400000237378	875.14	875.14	0	0	1	-59.99999999999999	59.99999999999999								
	92	94	0.027927395	0.148281675	7.8145e-6	875.150000023897	875.15	875.15	0	0	1	-59.99999999999999	59.99999999999999								
	%%modeling the transformer as lines between buses within the same substation
	10	85	0.0002	0.015999	0.0	1000.0	1000.0	1000.0	0	0	1	-59.99999999999999	59.99999999999999								
	2	86	0.0002	0.015999	0.0	1000.0000000210093	1000.0	1000.0	0	0	1	-59.99999999999999	59.99999999999999								
	25	87	0.0002	0.015999	0.0	1000.0	1000.0	1000.0	0	0	1	-59.99999999999999	59.99999999999999								
	36	88	0.0002	0.015999	0.0	1000.0000000212708	1000.0	1000.0	0	0	1	-59.99999999999999	59.99999999999999								
	40	89	0.0002	0.015999	0.0	1000.0000000207365	1000.0	1000.0	0	0	1	-59.99999999999999	59.99999999999999								
	55	90	0.0002	0.015999	0.0	1000.0000000209184	1000.0	1000.0	0	0	1	-59.99999999999999	59.99999999999999								
	70	91	0.0002	0.015999	0.0	1000.0000000207365	1000.0	1000.0	0	0	1	-59.99999999999999	59.99999999999999								
	55	92	0.0002	0.015999	0.0	1000.0000000209184	1000.0	1000.0	0	0	1	-59.99999999999999	59.99999999999999								
	78	93	0.0002	0.015999	0.0	1000.0000000207365	1000.0	1000.0	0	0	1	-59.99999999999999	59.99999999999999								
	81	94	0.0002	0.015999	0.0	1000.0000000208729	1000.0	1000.0	0	0	1	-59.99999999999999	59.99999999999999								
	18	95	0.0002	0.015999	0.0	1000.0	1000.0	1000.0	0	0	1	-59.99999999999999	59.99999999999999								
	27	96	0.0002	0.015999	0.0	1000.0000000211003	1000.0	1000.0	0	0	1	-59.99999999999999	59.99999999999999								
	62	97	0.0002	0.015999	0.0	1000.0000000210093	1000.0	1000.0	0	0	1	-59.99999999999999	59.99999999999999								
	9	98	0.0002	0.015999	0.0	1000.0	1000.0	1000.0	0	0	1	-59.99999999999999	59.99999999999999								
	84	99	0.0002	0.015999	0.0	1000.0	1000.0	1000.0	0	0	1	-59.99999999999999	59.99999999999999								
];

%%-----  OPF Data  -----%%
%% cost data
%    1    startup    shutdown    n    x1    y1    ...    xn    yn
%    2    startup    shutdown    n    c(n-1)    ...    c0
mpc.gencost = [
	2	0.0	0.0	2	0.0001	0.0
	2	0.0	0.0	2	0.0001	0.0
	2	0.0	0.0	2	0.0001	0.0
	2	5665.2	5665.2	2	71.74	0.0
	2	5665.2	5665.2	2	71.74	0.0
	2	5665.2	5665.2	2	71.74	0.0
	2	5665.2	5665.2	2	71.74	0.0
	2	5665.2	5665.2	2	71.74	0.0
	2	5665.2	5665.2	2	71.74	0.0
	2	5665.2	5665.2	2	71.74	0.0
	2	5665.2	5665.2	2	71.74	0.0
	2	5665.2	5665.2	2	71.74	0.0
	2	5665.2	5665.2	2	71.74	0.0
	2	5665.2	5665.2	2	71.74	0.0
	2	5665.2	5665.2	2	71.74	0.0
	2	5665.2	5665.2	2	71.74	0.0
	2	5665.2	5665.2	2	71.74	0.0
	2	0.0	0.0	2	0.0001	0.0
	2	0.0	0.0	2	0.0001	0.0
	2	0.0	0.0	2	0.0001	0.0
	2	0.0	0.0	2	0.0001	0.0
	2	0.0	0.0	2	0.0001	0.0
	2	0.0	0.0	2	0.0001	0.0
	2	0.0	0.0	2	0.0001	0.0
];

%% bus names
mpc.bus_name = {
	'A3BSP_161kV'
	'Aboadze_161kV'
	'Abobo_225kV'
	'Achimota_161kV'
	'Aflao_161kV'
	'Akosombo_161kV'
	'Akwatia_161kV'
	'Akyempim_161kV'
	'Asawinso_161kV'
	'Asiekpe_161kV'
	'Ayanfuri_161kV'
	'Bawku_161kV'
	'Berekum_161kV'
	'Bibiani_30kV'
	'Bingerville_330kV'
	'Bogoso_161kV'
	'Bolgatanga_161kV'
	'Bolgatanga2_330kV'
	'BRElubo_161kV'
	'Bui_161kV'
	'Buipe_161kV'
	'CapeCoast_161kV'
	'Davie_330kV'
	'Dunkwa_161kV'
	'Dunkwa2_161kV'
	'Efasu_161kV'
	'Elubo_161kV'
	'EnclavedPower_161kV'
	'ESAyanfuri_161kV'
	'ESKenyase_161kV'
	'Essiama_161kV'
	'Ho_69kV'
	'Industry_161kV'
	'JNSunonAsogli_330kV'
	'Juabeso_161kV'
	'K2BSP_161kV'
	'KarPower_161kV'
	'Kara_330kV'
	'Kenyase_161kV'
	'Kintampo_161kV'
	'Kodeni_225kV'
	'Konongo_161kV'
	'Kpandue_69kV'
	'Kpevee_69kV'
	'Kpong_161kV'
	'KpongGS_161kV'
	'Kumasi_161kV'
	'LomeAflao_161kV'
	'Mallam_161kV'
	'Mim_161kV'
	'Moyassue_225kV'
	'Navrongo_161kV'
	'NewAbirem_161kV'
	'NewObuasi_161kV'
	'NewTamale_161kV'
	'NewTarkwa_161kV'
	'NewTema_161kV'
	'Nkawkaw_161kV'
	'Obuasi_161kV'
	'OuagaSud_225kV'
	'PP330_330kV'
	'Prestea_161kV'
	'Riviera_225kV'
	'Savannah_161kV'
	'Sawla_161kV'
	'Sinkasse_161kV'
	'SmelterI_161kV'
	'SmelterII_161kV'
	'Sogakope_69kV'
	'SunonAsogli_161kV'
	'Sunyani_161kV'
	'Tafo_161kV'
	'Takoradi_161kV'
	'Tamale_161kV'
	'Tarkwa_161kV'
	'Techiman_161kV'
	'Tumu_161kV'
	'Volta_161kV'
	'Wa_161kV'
	'Winneba_161kV'
	'Yendi_161kV'
	'Youga_35kV'
	'Zagtouli_225kV'
	'Zebilla_161kV'
	'Asiekpe_69kV'
	'Aboadze_330kV'
	'Dunkwa2_330kV'
	'K2BSP_330kV'
	'Kintampo_330kV'
	'NewTamale_330kV'
	'SunonAsogli_330kV'
	'Tamale_330kV'
	'Volta_330kV'
	'Yendi_330kV'
	'Bolgatanga2_225kV'
	'Elubo_225kV'
	'Prestea_225kV'
	'Asawinso_30kV'
	'Zebilla_35kV'
};

    %%-----  Elctricity Access Rates (2022) -----%% 
    %% The electricity access rates are the percentage of the population with access to electricity in each substation/region.
	mpc.elecrates = {
	0.9815
	1.0
	1.0
	1.0
	0.8413
	0.929
	0.87375
	0.666
	0.7318
	0.779
	0.9515
	0.4938
	0.8783
	1.0
	1.0
	0.716
	0.677
	1.0
	1.0
	1.0
	0.6063
	0.932875
	1.0
	0.72375
	0.636
	1.0
	0.9325
	1.0
	1.0
	1.0
	0.916
	0.8043
	1.0
	1.0
	0.5966
	0.9539
	1.0
	1.0
	0.8206
	0.63
	1.0
	0.895
	0.7973
	0.923
	0.562
	0.799
	0.9983
	1.0
	0.90925
	0.7275
	1.0
	0.4845
	0.8706
	0.82925
	0.76025
	0.791
	1.0
	0.7793
	0.997
	1.0
	1.0
	0.866
	1.0
	1.0
	0.4623
	1.0
	1.0
	1.0
	0.935
	1.0
	0.90175
	0.8213
	0.9875
	0.929
	0.8953
	0.7061
	0.9395
	1.0
	0.715
	0.891428571
	0.4341428571
	1.0
	1.0
	0.542
	1.0
	1.0
	1.0
	1.0
	1.0
	1.0
	1.0
	1.0
	1.0
	1.0
	1.0
	1.0
	1.0
	1.0
	1.0
};

%column_names% col_1 
mpc.genfuel = {
	'hydro'
	'hydro'
	'hydro'
	'ng'
	'ng'
	'ng'
	'ng'
	'ng'
	'ng'
	'ng'
	'ng'
	'ng'
	'ng'
	'ng'
	'ng'
	'ng'
	'ng'
	'ng'
	'ng'
	'ng'
	'ng'
	'ng'
	'ng'
	'solar'
	'solar'
	'solar'
	'solar'
	'solar'
	'solar'
	'bioga'
};

%% Gen names %% 
mpc.gentype = {
	'Akosombo'
	'Bui'
	'Kpong'
	'Aboadze_T1'
	'Aboadze_T2'
	'Aboadze_T3'
	'Aboadze_T4'
	'Aboadze_T5'
	'Kpone/Cenpower'
	'Asogli161'
	'Asogli330'
	'Tema TTIPP'
	'Tema MRP'
	'Tema TT2PP'
	'Karpower'
	'AKSA'
	'Twin City'
	'Bui Solar'
	'VRA Solar Kaleo'
	'VRA Solar Navrongo'
	'VRA Solar Lawra'
	'BXC Solar'
	'Meinenergy'
	'Safisana'
};

